PGE_Models/GLD Simulation Primary/GLD Simulation Primary/MC0006/MC0006_glmfile_ts.glm
//
//********************************
// A demonstration of cyme xml to Gridlab-D input
// created by: Vaibhav Donde
//

clock{
	timestamp '2000-07-17 0:00:00';
	stoptime '2000-07-18 0:00:00';
}
#set profiler=1


//********************************
// modules
//********************************
module tape;
module powerflow{
	solver_method FBS;
	default_maximum_voltage_error 1e-9;
};

//*********************************************
// Conductor Objects
//*********************************************
// OHCond_1/0_AAC_I
object overhead_line_conductor {
	name OHCond_1/0_AAC_I;
	resistance 0.8820750323;
	geometric_mean_radius 0.0110971584;
	diameter 0.367999264;
}

// OHCond_2_CU_I
object overhead_line_conductor {
	name OHCond_2_CU_I;
	resistance 0.8920559109;
	geometric_mean_radius 0.0882773952;
	diameter 0.291999416;
}

// OHCond_336_AAC_I
object overhead_line_conductor {
	name OHCond_336_AAC_I;
	resistance 0.2778923147;
	geometric_mean_radius 0.020994624;
	diameter 0.66499867;
}

// OHCond_2_ACSR_I
object overhead_line_conductor {
	name OHCond_2_ACSR_I;
	resistance 1.3505631832;
	geometric_mean_radius 0.060464504;
	diameter 0.32499935;
}

// OHCond_715_AAC_I
object overhead_line_conductor {
	name OHCond_715_AAC_I;
	resistance 0.1324968876;
	geometric_mean_radius 0.0311920128;
	diameter 0.972998054;
}

// OHCond_1/0_ACSR_I
object overhead_line_conductor {
	name OHCond_1/0_ACSR_I;
	resistance 0.8584762571;
	geometric_mean_radius 0.053506312;
	diameter 0.397999204;
}

// OHCond_397_ACSR_I
object overhead_line_conductor {
	name OHCond_397_ACSR_I;
	resistance 0.2310938707;
	geometric_mean_radius 0.026493216;
	diameter 0.782998434;
}

// OHCond_NONE
object overhead_line_conductor {
	name OHCond_NONE;
	resistance 0.0;
	geometric_mean_radius 0.0;
	diameter 0.0;
}

// OHCond_4_ACSR_I
object overhead_line_conductor {
	name OHCond_4_ACSR_I;
	resistance 2.1715395317;
	geometric_mean_radius 0.0524265688;
	diameter 0.2499995;
}

// OHCond_6_CU_I
object overhead_line_conductor {
	name OHCond_6_CU_I;
	resistance 2.2113584416;
	geometric_mean_radius 0.00525866;
	diameter 0.161999676;
}

// OHCond_DEFAULT
object overhead_line_conductor {
	name OHCond_DEFAULT;
	resistance 0.27792611;
	geometric_mean_radius 0.01667552;
	diameter 0.52799107;
}

// OHCond_4/0_AAC_I
object overhead_line_conductor {
	name OHCond_4/0_AAC_I;
	resistance 0.4406874934;
	geometric_mean_radius 0.015765976;
	diameter 0.521998956;
}

// OHCond_4_CU_I
object overhead_line_conductor {
	name OHCond_4_CU_I;
	resistance 1.4181103321;
	geometric_mean_radius 0.006998208;
	diameter 0.231999536;
}

// OHCond_397_AAC_I
object overhead_line_conductor {
	name OHCond_397_AAC_I;
	resistance 0.2354936969;
	geometric_mean_radius 0.0227941632;
	diameter 0.722998554;
}

// UGCable_2_AL_XLP-PVC_22KV_3P
object underground_line_conductor {
	name UGCable_2_AL_XLP-PVC_22KV_3P;
	outer_diameter 0.6692917;
	conductor_gmr 0.01667552;
	conductor_diameter 0.52799107;
	conductor_resistance 0.27792611;
	neutral_gmr 0.01667552;
	neutral_resistance 0.27792611;
	neutral_diameter 0.52799107;
	neutral_strands 2;
}

// UGCable_DEFAULT
object underground_line_conductor {
	name UGCable_DEFAULT;
	outer_diameter 0.6692917;
	conductor_gmr 0.01667552;
	conductor_diameter 0.52799107;
	conductor_resistance 0.27792611;
	neutral_gmr 0.01667552;
	neutral_resistance 0.27792611;
	neutral_diameter 0.52799107;
	neutral_strands 2;
}

// UGCable_2_AL_XLP-CONC-ENCAP-PE_22KV_3P
object underground_line_conductor {
	name UGCable_2_AL_XLP-CONC-ENCAP-PE_22KV_3P;
	outer_diameter 0.6692917;
	conductor_gmr 0.01667552;
	conductor_diameter 0.52799107;
	conductor_resistance 0.27792611;
	neutral_gmr 0.01667552;
	neutral_resistance 0.27792611;
	neutral_diameter 0.52799107;
	neutral_strands 2;
}

// UGCable_2_CU_XLP-PVC_15KV_3P
object underground_line_conductor {
	name UGCable_2_CU_XLP-PVC_15KV_3P;
	outer_diameter 0.6692917;
	conductor_gmr 0.01667552;
	conductor_diameter 0.52799107;
	conductor_resistance 0.27792611;
	neutral_gmr 0.01667552;
	neutral_resistance 0.27792611;
	neutral_diameter 0.52799107;
	neutral_strands 2;
}

// UGCable_2_AL_PEC_22KV_2P
object underground_line_conductor {
	name UGCable_2_AL_PEC_22KV_2P;
	outer_diameter 0.669290518897;
	conductor_gmr 0.01667552;
	conductor_diameter 0.52799107;
	conductor_resistance 0.27792611;
	neutral_gmr 0.01667552;
	neutral_resistance 0.27792611;
	neutral_diameter 0.52799107;
	neutral_strands 2;
}

// UGCable_1000_AL_XLP-PVC_22KV_3P
object underground_line_conductor {
	name UGCable_1000_AL_XLP-PVC_22KV_3P;
	outer_diameter 0.6692917;
	conductor_gmr 0.01667552;
	conductor_diameter 0.52799107;
	conductor_resistance 0.27792611;
	neutral_gmr 0.01667552;
	neutral_resistance 0.27792611;
	neutral_diameter 0.52799107;
	neutral_strands 2;
}

// UGCable_2_AL_PEC_22KV_3P
object underground_line_conductor {
	name UGCable_2_AL_PEC_22KV_3P;
	outer_diameter 0.6692917;
	conductor_gmr 0.01667552;
	conductor_diameter 0.52799107;
	conductor_resistance 0.27792611;
	neutral_gmr 0.01667552;
	neutral_resistance 0.27792611;
	neutral_diameter 0.52799107;
	neutral_strands 2;
}

// UGCable_1/0_AL_EPR-CONC-ENCAP-PE_2P
object underground_line_conductor {
	name UGCable_1/0_AL_EPR-CONC-ENCAP-PE_2P;
	outer_diameter 0.669290518897;
	conductor_gmr 0.01667552;
	conductor_diameter 0.52799107;
	conductor_resistance 0.27792611;
	neutral_gmr 0.01667552;
	neutral_resistance 0.27792611;
	neutral_diameter 0.52799107;
	neutral_strands 2;
}

// UGCable_2_AL_XLP-CONC-CIC_22KV_2P
object underground_line_conductor {
	name UGCable_2_AL_XLP-CONC-CIC_22KV_2P;
	outer_diameter 0.669290518897;
	conductor_gmr 0.01667552;
	conductor_diameter 0.52799107;
	conductor_resistance 0.27792611;
	neutral_gmr 0.01667552;
	neutral_resistance 0.27792611;
	neutral_diameter 0.52799107;
	neutral_strands 2;
}

// UGCable_1/0_AL_EPR-CONC-ENCAP-PE_3P
object underground_line_conductor {
	name UGCable_1/0_AL_EPR-CONC-ENCAP-PE_3P;
	outer_diameter 0.6692917;
	conductor_gmr 0.01667552;
	conductor_diameter 0.52799107;
	conductor_resistance 0.27792611;
	neutral_gmr 0.01667552;
	neutral_resistance 0.27792611;
	neutral_diameter 0.52799107;
	neutral_strands 2;
}

// UGCable_2_AL_XLP-CONC-PVC_22KV_3P
object underground_line_conductor {
	name UGCable_2_AL_XLP-CONC-PVC_22KV_3P;
	outer_diameter 0.6692917;
	conductor_gmr 0.01667552;
	conductor_diameter 0.52799107;
	conductor_resistance 0.27792611;
	neutral_gmr 0.01667552;
	neutral_resistance 0.27792611;
	neutral_diameter 0.52799107;
	neutral_strands 2;
}

// UGCable_1/0_AL_XLP-PVC_22KV_3P
object underground_line_conductor {
	name UGCable_1/0_AL_XLP-PVC_22KV_3P;
	outer_diameter 0.6692917;
	conductor_gmr 0.01667552;
	conductor_diameter 0.52799107;
	conductor_resistance 0.27792611;
	neutral_gmr 0.01667552;
	neutral_resistance 0.27792611;
	neutral_diameter 0.52799107;
	neutral_strands 2;
}

// UGCable_1100_AL_EPR-CONC-ENCAP-PE_3P
object underground_line_conductor {
	name UGCable_1100_AL_EPR-CONC-ENCAP-PE_3P;
	outer_diameter 0.6692917;
	conductor_gmr 0.01667552;
	conductor_diameter 0.52799107;
	conductor_resistance 0.27792611;
	neutral_gmr 0.01667552;
	neutral_resistance 0.27792611;
	neutral_diameter 0.52799107;
	neutral_strands 2;
}

// UGCable_1/0_AL_XLP-CONC-PVC_22KV_3P
object underground_line_conductor {
	name UGCable_1/0_AL_XLP-CONC-PVC_22KV_3P;
	outer_diameter 0.6692917;
	conductor_gmr 0.01667552;
	conductor_diameter 0.52799107;
	conductor_resistance 0.27792611;
	neutral_gmr 0.01667552;
	neutral_resistance 0.27792611;
	neutral_diameter 0.52799107;
	neutral_strands 2;
}

// UGCable_2_AL_XLP-CONC-ENCAP-PE_22KV_2P
object underground_line_conductor {
	name UGCable_2_AL_XLP-CONC-ENCAP-PE_22KV_2P;
	outer_diameter 0.669290518897;
	conductor_gmr 0.01667552;
	conductor_diameter 0.52799107;
	conductor_resistance 0.27792611;
	neutral_gmr 0.01667552;
	neutral_resistance 0.27792611;
	neutral_diameter 0.52799107;
	neutral_strands 2;
}

// UGCable_1/0_AL_XLP-CON-ENCP-PE_22KV_3P
object underground_line_conductor {
	name UGCable_1/0_AL_XLP-CON-ENCP-PE_22KV_3P;
	outer_diameter 0.6692917;
	conductor_gmr 0.01667552;
	conductor_diameter 0.52799107;
	conductor_resistance 0.27792611;
	neutral_gmr 0.01667552;
	neutral_resistance 0.27792611;
	neutral_diameter 0.52799107;
	neutral_strands 2;
}

// UGCable_600_AL_EPR-CONC-ENCAP-PE_3P
object underground_line_conductor {
	name UGCable_600_AL_EPR-CONC-ENCAP-PE_3P;
	outer_diameter 0.6692917;
	conductor_gmr 0.01667552;
	conductor_diameter 0.52799107;
	conductor_resistance 0.27792611;
	neutral_gmr 0.01667552;
	neutral_resistance 0.27792611;
	neutral_diameter 0.52799107;
	neutral_strands 2;
}

// UGCable_750_CU_1C_XLP-PVC_15KV_3P
object underground_line_conductor {
	name UGCable_750_CU_1C_XLP-PVC_15KV_3P;
	outer_diameter 0.6692917;
	conductor_gmr 0.01667552;
	conductor_diameter 0.52799107;
	conductor_resistance 0.27792611;
	neutral_gmr 0.01667552;
	neutral_resistance 0.27792611;
	neutral_diameter 0.52799107;
	neutral_strands 2;
}

//*********************************************
// Line spacing objects
//*********************************************
// OHSpacing_HORIZONTAL_2P_88
object line_spacing {
	name OHSpacing_HORIZONTAL_2P_88;
	distance_AB 7.3332408792;
	distance_BC 7.3332408792;
	distance_AC 7.3332408792;
	distance_AN 9.9998784;
	distance_BN 9.9998784;
	distance_CN 9.9998784;
}

// OHSpacing_TRIANGULAR_3P_52
object line_spacing {
	name OHSpacing_TRIANGULAR_3P_52;
	distance_AB 4.3332773592;
	distance_BC 4.3332773592;
	distance_AC 4.3332773592;
	distance_AN 6.6665888808;
	distance_BN 6.6665888808;
	distance_CN 6.6665888808;
}

// UGSpacing_1100_AL_EPR-CONC-ENCAP-PE_3P
object line_spacing {
	name UGSpacing_1100_AL_EPR-CONC-ENCAP-PE_3P;
	distance_AB 0.147636;
	distance_BC 0.147636;
	distance_AC 0.295272;
}

// UGSpacing_2_AL_XLP-CONC-ENCAP-PE_22KV_3P
object line_spacing {
	name UGSpacing_2_AL_XLP-CONC-ENCAP-PE_22KV_3P;
	distance_AB 0.147636;
	distance_BC 0.147636;
	distance_AC 0.295272;
}

// UGSpacing_1000_AL_XLP-PVC_22KV_3P
object line_spacing {
	name UGSpacing_1000_AL_XLP-PVC_22KV_3P;
	distance_AB 0.147636;
	distance_BC 0.147636;
	distance_AC 0.295272;
}

// OHSpacing_TRIANGULAR_2P_52
object line_spacing {
	name OHSpacing_TRIANGULAR_2P_52;
	distance_AB 4.33328064;
	distance_BC 4.33328064;
	distance_AC 4.33328064;
	distance_AN 4.3332773592;
	distance_BN 4.3332773592;
	distance_CN 4.3332773592;
}

// OHSpacing_TRIANGULAR_2P_39
object line_spacing {
	name OHSpacing_TRIANGULAR_2P_39;
	distance_AB 3.24996048;
	distance_BC 3.24996048;
	distance_AC 3.24996048;
	distance_AN 3.24996048;
	distance_BN 3.24996048;
	distance_CN 3.24996048;
}

// UGSpacing_1/0_AL_EPR-CONC-ENCAP-PE_3P
object line_spacing {
	name UGSpacing_1/0_AL_EPR-CONC-ENCAP-PE_3P;
	distance_AB 0.147636;
	distance_BC 0.147636;
	distance_AC 0.295272;
}

// OHSpacing_HORIZONTAL_2P_52
object line_spacing {
	name OHSpacing_HORIZONTAL_2P_52;
	distance_AB 4.3332773592;
	distance_BC 4.3332773592;
	distance_AC 4.3332773592;
	distance_AN 6.6665888808;
	distance_BN 6.6665888808;
	distance_CN 6.6665888808;
}

// OHSpacing_HORIZONTAL_3P_88
object line_spacing {
	name OHSpacing_HORIZONTAL_3P_88;
	distance_AB 7.3332408792;
	distance_BC 7.3332408792;
	distance_AC 7.3332408792;
	distance_AN 9.9998784;
	distance_BN 9.9998784;
	distance_CN 9.9998784;
}

// UGSpacing_2_AL_PEC_22KV_3P
object line_spacing {
	name UGSpacing_2_AL_PEC_22KV_3P;
	distance_AB 0.147636;
	distance_BC 0.147636;
	distance_AC 0.295272;
}

// OHSpacing_TRIANGULAR_3P_30
object line_spacing {
	name OHSpacing_TRIANGULAR_3P_30;
	distance_AB 2.4999696;
	distance_BC 2.4999696;
	distance_AC 2.4999696;
	distance_AN 4.9999392;
	distance_BN 4.9999392;
	distance_CN 4.9999392;
}

// UGSpacing_750_CU_1C_XLP-PVC_15KV_3P
object line_spacing {
	name UGSpacing_750_CU_1C_XLP-PVC_15KV_3P;
	distance_AB 0.147636;
	distance_BC 0.147636;
	distance_AC 0.295272;
}

// OHSpacing_TRIANGULAR_3P_35
object line_spacing {
	name OHSpacing_TRIANGULAR_3P_35;
	distance_AB 2.9166312;
	distance_BC 2.9166312;
	distance_AC 2.9166312;
	distance_AN 5.49993312;
	distance_BN 5.49993312;
	distance_CN 5.49993312;
}

// UGSpacing_DEFAULT
object line_spacing {
	name UGSpacing_DEFAULT;
	distance_AB 0.147636;
	distance_BC 0.147636;
	distance_AC 0.295272;
}

// UGSpacing_2_AL_XLP-CONC-ENCAP-PE_22KV_2P
object line_spacing {
	name UGSpacing_2_AL_XLP-CONC-ENCAP-PE_22KV_2P;
	distance_AB 0.147636;
	distance_BC 0.0;
	distance_AC 0.0;
}

// UGSpacing_2_AL_XLP-CONC-CIC_22KV_2P
object line_spacing {
	name UGSpacing_2_AL_XLP-CONC-CIC_22KV_2P;
	distance_AB 0.147636;
	distance_BC 0.0;
	distance_AC 0.0;
}

// OHSpacing_HORIZONTAL_3P_52
object line_spacing {
	name OHSpacing_HORIZONTAL_3P_52;
	distance_AB 4.3332773592;
	distance_BC 4.3332773592;
	distance_AC 4.3332773592;
	distance_AN 6.6665888808;
	distance_BN 6.6665888808;
	distance_CN 6.6665888808;
}

// UGSpacing_1/0_AL_XLP-CONC-PVC_22KV_3P
object line_spacing {
	name UGSpacing_1/0_AL_XLP-CONC-PVC_22KV_3P;
	distance_AB 0.147636;
	distance_BC 0.147636;
	distance_AC 0.295272;
}

// UGSpacing_2_AL_XLP-PVC_22KV_3P
object line_spacing {
	name UGSpacing_2_AL_XLP-PVC_22KV_3P;
	distance_AB 0.147636;
	distance_BC 0.147636;
	distance_AC 0.295272;
}

// UGSpacing_2_AL_XLP-CONC-PVC_22KV_3P
object line_spacing {
	name UGSpacing_2_AL_XLP-CONC-PVC_22KV_3P;
	distance_AB 0.147636;
	distance_BC 0.147636;
	distance_AC 0.295272;
}

// UGSpacing_2_CU_XLP-PVC_15KV_3P
object line_spacing {
	name UGSpacing_2_CU_XLP-PVC_15KV_3P;
	distance_AB 0.147636;
	distance_BC 0.147636;
	distance_AC 0.295272;
}

// OHSpacing_DEFAULT
object line_spacing {
	name OHSpacing_DEFAULT;
	distance_AB 7.87392;
	distance_BC 11.81088;
	distance_AC 19.6848;
	distance_AN 16.1427362481;
	distance_BN 11.0041377309;
	distance_CN 12.0141802992;
	distance_AE 54.9534;
	distance_BE 54.9534;
	distance_CE 54.9534;
	distance_NE 45.111;
}

// UGSpacing_1/0_AL_EPR-CONC-ENCAP-PE_2P
object line_spacing {
	name UGSpacing_1/0_AL_EPR-CONC-ENCAP-PE_2P;
	distance_AB 0.147636;
	distance_BC 0.0;
	distance_AC 0.0;
}

// UGSpacing_1/0_AL_XLP-PVC_22KV_3P
object line_spacing {
	name UGSpacing_1/0_AL_XLP-PVC_22KV_3P;
	distance_AB 0.147636;
	distance_BC 0.147636;
	distance_AC 0.295272;
}

// OHSpacing_HORIZONTAL_2P_45
object line_spacing {
	name OHSpacing_HORIZONTAL_2P_45;
	distance_AB 3.7499544;
	distance_BC 3.7499544;
	distance_AC 3.7499544;
	distance_AN 4.9999392;
	distance_BN 4.9999392;
	distance_CN 4.9999392;
}

// UGSpacing_600_AL_EPR-CONC-ENCAP-PE_3P
object line_spacing {
	name UGSpacing_600_AL_EPR-CONC-ENCAP-PE_3P;
	distance_AB 0.147636;
	distance_BC 0.147636;
	distance_AC 0.295272;
}

// UGSpacing_1/0_AL_XLP-CON-ENCP-PE_22KV_3P
object line_spacing {
	name UGSpacing_1/0_AL_XLP-CON-ENCP-PE_22KV_3P;
	distance_AB 0.147636;
	distance_BC 0.147636;
	distance_AC 0.295272;
}

// UGSpacing_2_AL_PEC_22KV_2P
object line_spacing {
	name UGSpacing_2_AL_PEC_22KV_2P;
	distance_AB 0.147636;
	distance_BC 0.0;
	distance_AC 0.0;
}

// OHSpacing_HORIZONTAL_3P_72
object line_spacing {
	name OHSpacing_HORIZONTAL_3P_72;
	distance_AB 5.99992704;
	distance_BC 5.99992704;
	distance_AC 5.99992704;
	distance_AN 8.1599007744;
	distance_BN 8.1599007744;
	distance_CN 8.1599007744;
}

//*********************************************
// Line Config objects
//*********************************************
// L_1200104232_LineConfig
object line_configuration {
	name L_1200104232_LineConfig;
	conductor_A OHCond_6_CU_I;
	conductor_B OHCond_6_CU_I;
	conductor_C OHCond_6_CU_I;
	conductor_N OHCond_NONE;
	spacing OHSpacing_HORIZONTAL_3P_52;
}

// L_1200074195_LineConfig
object line_configuration {
	name L_1200074195_LineConfig;
	conductor_A OHCond_4_CU_I;
	conductor_B OHCond_4_CU_I;
	conductor_C OHCond_4_CU_I;
	conductor_N OHCond_NONE;
	spacing OHSpacing_HORIZONTAL_3P_52;
}

// L_1200164085_LineConfig
object line_configuration {
	name L_1200164085_LineConfig;
	conductor_A OHCond_4_ACSR_I;
	conductor_B OHCond_4_ACSR_I;
	conductor_C OHCond_NONE;
	conductor_N OHCond_NONE;
	spacing OHSpacing_HORIZONTAL_2P_52;
}

// L_1200158011_LineConfig
object line_configuration {
	name L_1200158011_LineConfig;
	conductor_A OHCond_4_ACSR_I;
	conductor_B OHCond_4_ACSR_I;
	conductor_C OHCond_4_ACSR_I;
	conductor_N OHCond_NONE;
	spacing OHSpacing_HORIZONTAL_3P_52;
}

// L_1200030723_LineConfig
object line_configuration {
	name L_1200030723_LineConfig;
	conductor_A OHCond_4_CU_I;
	conductor_B OHCond_4_CU_I;
	conductor_C OHCond_4_CU_I;
	conductor_N OHCond_NONE;
	spacing OHSpacing_HORIZONTAL_3P_52;
}

// L_1200074225_LineConfig
object line_configuration {
	name L_1200074225_LineConfig;
	conductor_A OHCond_6_CU_I;
	conductor_B OHCond_6_CU_I;
	conductor_C OHCond_6_CU_I;
	conductor_N OHCond_NONE;
	spacing OHSpacing_HORIZONTAL_3P_52;
}

// L_1200128712_LineConfig
object line_configuration {
	name L_1200128712_LineConfig;
	conductor_A OHCond_4_ACSR_I;
	conductor_B OHCond_4_ACSR_I;
	conductor_C OHCond_4_ACSR_I;
	conductor_N OHCond_NONE;
	spacing OHSpacing_HORIZONTAL_3P_52;
}

// L_1200157142_LineConfig
object line_configuration {
	name L_1200157142_LineConfig;
	conductor_A OHCond_4_CU_I;
	conductor_B OHCond_4_CU_I;
	conductor_C OHCond_4_CU_I;
	conductor_N OHCond_NONE;
	spacing OHSpacing_HORIZONTAL_3P_52;
}

// L_1200128340_LineConfig
object line_configuration {
	name L_1200128340_LineConfig;
	conductor_A OHCond_6_CU_I;
	conductor_B OHCond_6_CU_I;
	conductor_C OHCond_6_CU_I;
	conductor_N OHCond_NONE;
	spacing OHSpacing_HORIZONTAL_3P_52;
}

// L_1200157172_LineConfig
object line_configuration {
	name L_1200157172_LineConfig;
	conductor_A OHCond_6_CU_I;
	conductor_B OHCond_6_CU_I;
	conductor_C OHCond_6_CU_I;
	conductor_N OHCond_NONE;
	spacing OHSpacing_HORIZONTAL_3P_52;
}

// L_1200090841_LineConfig
object line_configuration {
	name L_1200090841_LineConfig;
	conductor_A OHCond_6_CU_I;
	conductor_B OHCond_6_CU_I;
	conductor_C OHCond_6_CU_I;
	conductor_N OHCond_NONE;
	spacing OHSpacing_HORIZONTAL_3P_52;
}

// L_1200091496_LineConfig
object line_configuration {
	name L_1200091496_LineConfig;
	conductor_A OHCond_2_CU_I;
	conductor_B OHCond_2_CU_I;
	conductor_C OHCond_2_CU_I;
	conductor_N OHCond_NONE;
	spacing OHSpacing_HORIZONTAL_3P_52;
}

// L_1200158012_LineConfig
object line_configuration {
	name L_1200158012_LineConfig;
	conductor_A OHCond_2_CU_I;
	conductor_B OHCond_2_CU_I;
	conductor_C OHCond_2_CU_I;
	conductor_N OHCond_NONE;
	spacing OHSpacing_HORIZONTAL_3P_52;
}

// L_1200019224_LineConfig
object line_configuration {
	name L_1200019224_LineConfig;
	conductor_A OHCond_4_CU_I;
	conductor_B OHCond_4_CU_I;
	conductor_C OHCond_4_CU_I;
	conductor_N OHCond_NONE;
	spacing OHSpacing_HORIZONTAL_3P_52;
}

// L_1200157912_LineConfig
object line_configuration {
	name L_1200157912_LineConfig;
	conductor_A OHCond_4_CU_I;
	conductor_B OHCond_4_CU_I;
	conductor_C OHCond_4_CU_I;
	conductor_N OHCond_NONE;
	spacing OHSpacing_HORIZONTAL_3P_52;
}

// L_1200088683_LineConfig
object line_configuration {
	name L_1200088683_LineConfig;
	conductor_A OHCond_4_CU_I;
	conductor_B OHCond_4_CU_I;
	conductor_C OHCond_4_CU_I;
	conductor_N OHCond_NONE;
	spacing OHSpacing_HORIZONTAL_3P_52;
}

// L_1200157240_LineConfig
object line_configuration {
	name L_1200157240_LineConfig;
	conductor_A OHCond_4_ACSR_I;
	conductor_B OHCond_4_ACSR_I;
	conductor_C OHCond_4_ACSR_I;
	conductor_N OHCond_NONE;
	spacing OHSpacing_HORIZONTAL_3P_52;
}

// L_1200128367_LineConfig
object line_configuration {
	name L_1200128367_LineConfig;
	conductor_A OHCond_4_ACSR_I;
	conductor_B OHCond_4_ACSR_I;
	conductor_C OHCond_4_ACSR_I;
	conductor_N OHCond_NONE;
	spacing OHSpacing_HORIZONTAL_3P_52;
}

// L_1200157031_LineConfig
object line_configuration {
	name L_1200157031_LineConfig;
	conductor_A OHCond_6_CU_I;
	conductor_B OHCond_6_CU_I;
	conductor_C OHCond_NONE;
	conductor_N OHCond_NONE;
	spacing OHSpacing_HORIZONTAL_2P_52;
}

// L_1200176096_LineConfig
object line_configuration {
	name L_1200176096_LineConfig;
	conductor_A OHCond_2_CU_I;
	conductor_B OHCond_2_CU_I;
	conductor_C OHCond_2_CU_I;
	conductor_N OHCond_NONE;
	spacing OHSpacing_HORIZONTAL_3P_52;
}

// L_1200173329_LineConfig
object line_configuration {
	name L_1200173329_LineConfig;
	conductor_A OHCond_2_CU_I;
	conductor_B OHCond_2_CU_I;
	conductor_C OHCond_2_CU_I;
	conductor_N OHCond_NONE;
	spacing OHSpacing_HORIZONTAL_3P_52;
}

// L_1200019470_LineConfig
object line_configuration {
	name L_1200019470_LineConfig;
	conductor_A OHCond_2_CU_I;
	conductor_B OHCond_2_CU_I;
	conductor_C OHCond_2_CU_I;
	conductor_N OHCond_NONE;
	spacing OHSpacing_HORIZONTAL_3P_52;
}

// L_1200157020_LineConfig
object line_configuration {
	name L_1200157020_LineConfig;
	conductor_A OHCond_4_CU_I;
	conductor_B OHCond_4_CU_I;
	conductor_C OHCond_4_CU_I;
	conductor_N OHCond_NONE;
	spacing OHSpacing_HORIZONTAL_3P_52;
}

// L_1200019817_LineConfig
object line_configuration {
	name L_1200019817_LineConfig;
	conductor_A OHCond_2_CU_I;
	conductor_B OHCond_2_CU_I;
	conductor_C OHCond_2_CU_I;
	conductor_N OHCond_NONE;
	spacing OHSpacing_HORIZONTAL_3P_52;
}

// L_1200157036_LineConfig
object line_configuration {
	name L_1200157036_LineConfig;
	conductor_A OHCond_4_CU_I;
	conductor_B OHCond_4_CU_I;
	conductor_C OHCond_4_CU_I;
	conductor_N OHCond_NONE;
	spacing OHSpacing_HORIZONTAL_3P_52;
}

// L_1200017764_LineConfig
object line_configuration {
	name L_1200017764_LineConfig;
	conductor_A OHCond_2_CU_I;
	conductor_B OHCond_2_CU_I;
	conductor_C OHCond_2_CU_I;
	conductor_N OHCond_NONE;
	spacing OHSpacing_HORIZONTAL_3P_52;
}

// L_1200157127_LineConfig
object line_configuration {
	name L_1200157127_LineConfig;
	conductor_A OHCond_6_CU_I;
	conductor_B OHCond_6_CU_I;
	conductor_C OHCond_6_CU_I;
	conductor_N OHCond_NONE;
	spacing OHSpacing_HORIZONTAL_3P_52;
}

// L_1200176443_LineConfig
object line_configuration {
	name L_1200176443_LineConfig;
	conductor_A OHCond_4_ACSR_I;
	conductor_B OHCond_4_ACSR_I;
	conductor_C OHCond_4_ACSR_I;
	conductor_N OHCond_NONE;
	spacing OHSpacing_HORIZONTAL_3P_52;
}

// L_1200157910_LineConfig
object line_configuration {
	name L_1200157910_LineConfig;
	conductor_A OHCond_4_CU_I;
	conductor_B OHCond_4_CU_I;
	conductor_C OHCond_4_CU_I;
	conductor_N OHCond_NONE;
	spacing OHSpacing_HORIZONTAL_3P_52;
}

// L_1200157945_LineConfig
object line_configuration {
	name L_1200157945_LineConfig;
	conductor_A OHCond_397_AAC_I;
	conductor_B OHCond_397_AAC_I;
	conductor_C OHCond_397_AAC_I;
	conductor_N OHCond_NONE;
	spacing OHSpacing_HORIZONTAL_3P_52;
}

// L_1200156997_LineConfig
object line_configuration {
	name L_1200156997_LineConfig;
	conductor_A OHCond_2_CU_I;
	conductor_B OHCond_2_CU_I;
	conductor_C OHCond_2_CU_I;
	conductor_N OHCond_NONE;
	spacing OHSpacing_HORIZONTAL_3P_52;
}

// L_1200074222_LineConfig
object line_configuration {
	name L_1200074222_LineConfig;
	conductor_A OHCond_4_ACSR_I;
	conductor_B OHCond_4_ACSR_I;
	conductor_C OHCond_4_ACSR_I;
	conductor_N OHCond_NONE;
	spacing OHSpacing_HORIZONTAL_3P_52;
}

// L_1200128175_LineConfig
object line_configuration {
	name L_1200128175_LineConfig;
	conductor_A OHCond_4_CU_I;
	conductor_B OHCond_4_CU_I;
	conductor_C OHCond_4_CU_I;
	conductor_N OHCond_NONE;
	spacing OHSpacing_HORIZONTAL_3P_52;
}

// L_1200164735_LineConfig
object line_configuration {
	name L_1200164735_LineConfig;
	conductor_A OHCond_2_CU_I;
	conductor_B OHCond_2_CU_I;
	conductor_C OHCond_2_CU_I;
	conductor_N OHCond_NONE;
	spacing OHSpacing_HORIZONTAL_3P_52;
}

// L_1200030190_LineConfig
object line_configuration {
	name L_1200030190_LineConfig;
	conductor_A OHCond_4_ACSR_I;
	conductor_B OHCond_4_ACSR_I;
	conductor_C OHCond_4_ACSR_I;
	conductor_N OHCond_NONE;
	spacing OHSpacing_HORIZONTAL_3P_52;
}

// L_1200157178_LineConfig
object line_configuration {
	name L_1200157178_LineConfig;
	conductor_A OHCond_6_CU_I;
	conductor_B OHCond_6_CU_I;
	conductor_C OHCond_6_CU_I;
	conductor_N OHCond_NONE;
	spacing OHSpacing_HORIZONTAL_3P_52;
}

// L_1200019237_LineConfig
object line_configuration {
	name L_1200019237_LineConfig;
	conductor_A OHCond_397_AAC_I;
	conductor_B OHCond_397_AAC_I;
	conductor_C OHCond_397_AAC_I;
	conductor_N OHCond_NONE;
	spacing OHSpacing_HORIZONTAL_3P_52;
}

// L_1200128380_LineConfig
object line_configuration {
	name L_1200128380_LineConfig;
	conductor_A OHCond_4_CU_I;
	conductor_B OHCond_4_CU_I;
	conductor_C OHCond_4_CU_I;
	conductor_N OHCond_NONE;
	spacing OHSpacing_HORIZONTAL_3P_52;
}

// L_1200083596_LineConfig
object line_configuration {
	name L_1200083596_LineConfig;
	conductor_A OHCond_6_CU_I;
	conductor_B OHCond_6_CU_I;
	conductor_C OHCond_6_CU_I;
	conductor_N OHCond_NONE;
	spacing OHSpacing_HORIZONTAL_3P_52;
}

// L_1200128192_LineConfig
object line_configuration {
	name L_1200128192_LineConfig;
	conductor_A OHCond_4_ACSR_I;
	conductor_B OHCond_4_ACSR_I;
	conductor_C OHCond_4_ACSR_I;
	conductor_N OHCond_NONE;
	spacing OHSpacing_HORIZONTAL_3P_52;
}

// L_1200019232_LineConfig
object line_configuration {
	name L_1200019232_LineConfig;
	conductor_A OHCond_715_AAC_I;
	conductor_B OHCond_715_AAC_I;
	conductor_C OHCond_715_AAC_I;
	conductor_N OHCond_NONE;
	spacing OHSpacing_HORIZONTAL_3P_52;
}

// L_1200083240_LineConfig
object line_configuration {
	name L_1200083240_LineConfig;
	conductor_A OHCond_4_ACSR_I;
	conductor_B OHCond_4_ACSR_I;
	conductor_C OHCond_NONE;
	conductor_N OHCond_NONE;
	spacing OHSpacing_HORIZONTAL_2P_52;
}

// L_1200128620_LineConfig
object line_configuration {
	name L_1200128620_LineConfig;
	conductor_A OHCond_4_CU_I;
	conductor_B OHCond_4_CU_I;
	conductor_C OHCond_4_CU_I;
	conductor_N OHCond_NONE;
	spacing OHSpacing_HORIZONTAL_3P_52;
}

// L_1200108736_LineConfig
object line_configuration {
	name L_1200108736_LineConfig;
	conductor_A OHCond_4_CU_I;
	conductor_B OHCond_4_CU_I;
	conductor_C OHCond_4_CU_I;
	conductor_N OHCond_NONE;
	spacing OHSpacing_HORIZONTAL_3P_52;
}

// L_1200163914_LineConfig
object line_configuration {
	name L_1200163914_LineConfig;
	conductor_A OHCond_6_CU_I;
	conductor_B OHCond_6_CU_I;
	conductor_C OHCond_6_CU_I;
	conductor_N OHCond_NONE;
	spacing OHSpacing_HORIZONTAL_3P_52;
}

// L_1200157235_LineConfig
object line_configuration {
	name L_1200157235_LineConfig;
	conductor_A OHCond_4_ACSR_I;
	conductor_B OHCond_4_ACSR_I;
	conductor_C OHCond_4_ACSR_I;
	conductor_N OHCond_NONE;
	spacing OHSpacing_HORIZONTAL_3P_52;
}

// L_1200089093_LineConfig
object line_configuration {
	name L_1200089093_LineConfig;
	conductor_A OHCond_6_CU_I;
	conductor_B OHCond_6_CU_I;
	conductor_C OHCond_6_CU_I;
	conductor_N OHCond_NONE;
	spacing OHSpacing_HORIZONTAL_3P_52;
}

// L_1200164083_LineConfig
object line_configuration {
	name L_1200164083_LineConfig;
	conductor_A OHCond_4_CU_I;
	conductor_B OHCond_4_CU_I;
	conductor_C OHCond_4_CU_I;
	conductor_N OHCond_NONE;
	spacing OHSpacing_HORIZONTAL_3P_52;
}

// L_1200157876_LineConfig
object line_configuration {
	name L_1200157876_LineConfig;
	conductor_A OHCond_2_CU_I;
	conductor_B OHCond_2_CU_I;
	conductor_C OHCond_2_CU_I;
	conductor_N OHCond_NONE;
	spacing OHSpacing_HORIZONTAL_3P_52;
}

// L_1200216425_LineConfig
object line_configuration {
	name L_1200216425_LineConfig;
	conductor_A OHCond_4_CU_I;
	conductor_B OHCond_4_CU_I;
	conductor_C OHCond_4_CU_I;
	conductor_N OHCond_NONE;
	spacing OHSpacing_HORIZONTAL_3P_52;
}

// L_1200157213_LineConfig
object line_configuration {
	name L_1200157213_LineConfig;
	conductor_A OHCond_6_CU_I;
	conductor_B OHCond_6_CU_I;
	conductor_C OHCond_6_CU_I;
	conductor_N OHCond_NONE;
	spacing OHSpacing_HORIZONTAL_3P_52;
}

// L_1200158028_LineConfig
object line_configuration {
	name L_1200158028_LineConfig;
	conductor_A OHCond_4_CU_I;
	conductor_B OHCond_4_CU_I;
	conductor_C OHCond_4_CU_I;
	conductor_N OHCond_NONE;
	spacing OHSpacing_HORIZONTAL_3P_52;
}

// L_1200019463_LineConfig
object line_configuration {
	name L_1200019463_LineConfig;
	conductor_A OHCond_2_CU_I;
	conductor_B OHCond_2_CU_I;
	conductor_C OHCond_2_CU_I;
	conductor_N OHCond_NONE;
	spacing OHSpacing_HORIZONTAL_3P_52;
}

// L_1200176097_LineConfig
object line_configuration {
	name L_1200176097_LineConfig;
	conductor_A OHCond_4_ACSR_I;
	conductor_B OHCond_4_ACSR_I;
	conductor_C OHCond_NONE;
	conductor_N OHCond_NONE;
	spacing OHSpacing_HORIZONTAL_2P_52;
}

// L_1200091069_LineConfig
object line_configuration {
	name L_1200091069_LineConfig;
	conductor_A OHCond_6_CU_I;
	conductor_B OHCond_6_CU_I;
	conductor_C OHCond_6_CU_I;
	conductor_N OHCond_NONE;
	spacing OHSpacing_HORIZONTAL_3P_52;
}

// L_1200157159_LineConfig
object line_configuration {
	name L_1200157159_LineConfig;
	conductor_A OHCond_4_ACSR_I;
	conductor_B OHCond_4_ACSR_I;
	conductor_C OHCond_4_ACSR_I;
	conductor_N OHCond_NONE;
	spacing OHSpacing_HORIZONTAL_3P_52;
}

// L_1200031338_LineConfig
object line_configuration {
	name L_1200031338_LineConfig;
	conductor_A OHCond_6_CU_I;
	conductor_B OHCond_6_CU_I;
	conductor_C OHCond_6_CU_I;
	conductor_N OHCond_NONE;
	spacing OHSpacing_HORIZONTAL_3P_52;
}

// L_1200016534_LineConfig
object line_configuration {
	name L_1200016534_LineConfig;
	conductor_A OHCond_336_AAC_I;
	conductor_B OHCond_336_AAC_I;
	conductor_C OHCond_336_AAC_I;
	conductor_N OHCond_NONE;
	spacing OHSpacing_HORIZONTAL_3P_52;
}

// L_1200030719_LineConfig
object line_configuration {
	name L_1200030719_LineConfig;
	conductor_A OHCond_6_CU_I;
	conductor_B OHCond_6_CU_I;
	conductor_C OHCond_6_CU_I;
	conductor_N OHCond_NONE;
	spacing OHSpacing_HORIZONTAL_3P_52;
}

// L_1200128605_LineConfig
object line_configuration {
	name L_1200128605_LineConfig;
	conductor_A OHCond_4_CU_I;
	conductor_B OHCond_4_CU_I;
	conductor_C OHCond_4_CU_I;
	conductor_N OHCond_NONE;
	spacing OHSpacing_HORIZONTAL_3P_52;
}

// L_1200020381_LineConfig
object line_configuration {
	name L_1200020381_LineConfig;
	conductor_A OHCond_4_CU_I;
	conductor_B OHCond_4_CU_I;
	conductor_C OHCond_4_CU_I;
	conductor_N OHCond_NONE;
	spacing OHSpacing_HORIZONTAL_3P_52;
}

// L_1200017788_LineConfig
object line_configuration {
	name L_1200017788_LineConfig;
	conductor_A OHCond_2_CU_I;
	conductor_B OHCond_2_CU_I;
	conductor_C OHCond_2_CU_I;
	conductor_N OHCond_NONE;
	spacing OHSpacing_HORIZONTAL_3P_52;
}

// L_1200157197_LineConfig
object line_configuration {
	name L_1200157197_LineConfig;
	conductor_A OHCond_4_CU_I;
	conductor_B OHCond_4_CU_I;
	conductor_C OHCond_4_CU_I;
	conductor_N OHCond_NONE;
	spacing OHSpacing_HORIZONTAL_3P_52;
}

// L_1200114402_LineConfig
object line_configuration {
	name L_1200114402_LineConfig;
	conductor_A OHCond_4_ACSR_I;
	conductor_B OHCond_4_ACSR_I;
	conductor_C OHCond_4_ACSR_I;
	conductor_N OHCond_NONE;
	spacing OHSpacing_HORIZONTAL_3P_52;
}

// L_1200128154_LineConfig
object line_configuration {
	name L_1200128154_LineConfig;
	conductor_A OHCond_2_CU_I;
	conductor_B OHCond_2_CU_I;
	conductor_C OHCond_2_CU_I;
	conductor_N OHCond_NONE;
	spacing OHSpacing_HORIZONTAL_3P_52;
}

// L_1200108754_LineConfig
object line_configuration {
	name L_1200108754_LineConfig;
	conductor_A OHCond_4_CU_I;
	conductor_B OHCond_4_CU_I;
	conductor_C OHCond_4_CU_I;
	conductor_N OHCond_NONE;
	spacing OHSpacing_HORIZONTAL_3P_52;
}

// L_1200163719_LineConfig
object line_configuration {
	name L_1200163719_LineConfig;
	conductor_A OHCond_6_CU_I;
	conductor_B OHCond_6_CU_I;
	conductor_C OHCond_6_CU_I;
	conductor_N OHCond_NONE;
	spacing OHSpacing_HORIZONTAL_3P_52;
}

// L_1200157211_LineConfig
object line_configuration {
	name L_1200157211_LineConfig;
	conductor_A OHCond_4_CU_I;
	conductor_B OHCond_4_CU_I;
	conductor_C OHCond_4_CU_I;
	conductor_N OHCond_NONE;
	spacing OHSpacing_HORIZONTAL_3P_52;
}

// L_1200030690_LineConfig
object line_configuration {
	name L_1200030690_LineConfig;
	conductor_A OHCond_4_ACSR_I;
	conductor_B OHCond_4_ACSR_I;
	conductor_C OHCond_NONE;
	conductor_N OHCond_NONE;
	spacing OHSpacing_TRIANGULAR_2P_39;
}

// L_1200157123_LineConfig
object line_configuration {
	name L_1200157123_LineConfig;
	conductor_A OHCond_4_ACSR_I;
	conductor_B OHCond_4_ACSR_I;
	conductor_C OHCond_4_ACSR_I;
	conductor_N OHCond_NONE;
	spacing OHSpacing_HORIZONTAL_3P_52;
}

// L_1200157247_LineConfig
object line_configuration {
	name L_1200157247_LineConfig;
	conductor_A OHCond_6_CU_I;
	conductor_B OHCond_6_CU_I;
	conductor_C OHCond_6_CU_I;
	conductor_N OHCond_NONE;
	spacing OHSpacing_HORIZONTAL_3P_52;
}

// L_1200108684_LineConfig
object line_configuration {
	name L_1200108684_LineConfig;
	conductor_A OHCond_6_CU_I;
	conductor_B OHCond_6_CU_I;
	conductor_C OHCond_6_CU_I;
	conductor_N OHCond_NONE;
	spacing OHSpacing_HORIZONTAL_3P_52;
}

// L_1200128278_LineConfig
object line_configuration {
	name L_1200128278_LineConfig;
	conductor_A OHCond_4_CU_I;
	conductor_B OHCond_4_CU_I;
	conductor_C OHCond_4_CU_I;
	conductor_N OHCond_NONE;
	spacing OHSpacing_HORIZONTAL_3P_52;
}

// L_1200164286_LineConfig
object line_configuration {
	name L_1200164286_LineConfig;
	conductor_A OHCond_6_CU_I;
	conductor_B OHCond_6_CU_I;
	conductor_C OHCond_6_CU_I;
	conductor_N OHCond_NONE;
	spacing OHSpacing_HORIZONTAL_3P_52;
}

// L_1200214055_LineConfig
object line_configuration {
	name L_1200214055_LineConfig;
	conductor_A OHCond_715_AAC_I;
	conductor_B OHCond_715_AAC_I;
	conductor_C OHCond_715_AAC_I;
	conductor_N OHCond_NONE;
	spacing OHSpacing_TRIANGULAR_3P_30;
}

// L_1200128153_LineConfig
object line_configuration {
	name L_1200128153_LineConfig;
	conductor_A OHCond_4_ACSR_I;
	conductor_B OHCond_4_ACSR_I;
	conductor_C OHCond_NONE;
	conductor_N OHCond_NONE;
	spacing OHSpacing_HORIZONTAL_2P_52;
}

// L_1200157259_LineConfig
object line_configuration {
	name L_1200157259_LineConfig;
	conductor_A OHCond_6_CU_I;
	conductor_B OHCond_6_CU_I;
	conductor_C OHCond_6_CU_I;
	conductor_N OHCond_NONE;
	spacing OHSpacing_HORIZONTAL_3P_52;
}

// L_1200157122_LineConfig
object line_configuration {
	name L_1200157122_LineConfig;
	conductor_A OHCond_6_CU_I;
	conductor_B OHCond_6_CU_I;
	conductor_C OHCond_6_CU_I;
	conductor_N OHCond_NONE;
	spacing OHSpacing_HORIZONTAL_3P_52;
}

// L_1200057057_LineConfig
object line_configuration {
	name L_1200057057_LineConfig;
	conductor_A OHCond_4_ACSR_I;
	conductor_B OHCond_4_ACSR_I;
	conductor_C OHCond_4_ACSR_I;
	conductor_N OHCond_NONE;
	spacing OHSpacing_HORIZONTAL_3P_52;
}

// L_1200019808_LineConfig
object line_configuration {
	name L_1200019808_LineConfig;
	conductor_A OHCond_4_CU_I;
	conductor_B OHCond_4_CU_I;
	conductor_C OHCond_4_CU_I;
	conductor_N OHCond_NONE;
	spacing OHSpacing_HORIZONTAL_3P_52;
}

// L_1200128332_LineConfig
object line_configuration {
	name L_1200128332_LineConfig;
	conductor_A OHCond_6_CU_I;
	conductor_B OHCond_6_CU_I;
	conductor_C OHCond_6_CU_I;
	conductor_N OHCond_NONE;
	spacing OHSpacing_HORIZONTAL_3P_52;
}

// L_1200128372_LineConfig
object line_configuration {
	name L_1200128372_LineConfig;
	conductor_A OHCond_4_ACSR_I;
	conductor_B OHCond_4_ACSR_I;
	conductor_C OHCond_4_ACSR_I;
	conductor_N OHCond_NONE;
	spacing OHSpacing_HORIZONTAL_3P_52;
}

// L_1200014998_LineConfig
object line_configuration {
	name L_1200014998_LineConfig;
	conductor_A OHCond_2_CU_I;
	conductor_B OHCond_2_CU_I;
	conductor_C OHCond_2_CU_I;
	conductor_N OHCond_NONE;
	spacing OHSpacing_HORIZONTAL_3P_52;
}

// L_1200098802_LineConfig
object line_configuration {
	name L_1200098802_LineConfig;
	conductor_A OHCond_2_CU_I;
	conductor_B OHCond_2_CU_I;
	conductor_C OHCond_2_CU_I;
	conductor_N OHCond_NONE;
	spacing OHSpacing_HORIZONTAL_3P_52;
}

// L_1200156968_LineConfig
object line_configuration {
	name L_1200156968_LineConfig;
	conductor_A OHCond_2_CU_I;
	conductor_B OHCond_2_CU_I;
	conductor_C OHCond_2_CU_I;
	conductor_N OHCond_NONE;
	spacing OHSpacing_HORIZONTAL_3P_52;
}

// L_1200091494_LineConfig
object line_configuration {
	name L_1200091494_LineConfig;
	conductor_A OHCond_2_CU_I;
	conductor_B OHCond_2_CU_I;
	conductor_C OHCond_2_CU_I;
	conductor_N OHCond_NONE;
	spacing OHSpacing_HORIZONTAL_3P_52;
}

// L_1200157125_LineConfig
object line_configuration {
	name L_1200157125_LineConfig;
	conductor_A OHCond_6_CU_I;
	conductor_B OHCond_6_CU_I;
	conductor_C OHCond_6_CU_I;
	conductor_N OHCond_NONE;
	spacing OHSpacing_HORIZONTAL_3P_52;
}

// L_1200157292_LineConfig
object line_configuration {
	name L_1200157292_LineConfig;
	conductor_A OHCond_6_CU_I;
	conductor_B OHCond_6_CU_I;
	conductor_C OHCond_6_CU_I;
	conductor_N OHCond_NONE;
	spacing OHSpacing_HORIZONTAL_3P_52;
}

// L_1200074224_LineConfig
object line_configuration {
	name L_1200074224_LineConfig;
	conductor_A OHCond_4_ACSR_I;
	conductor_B OHCond_4_ACSR_I;
	conductor_C OHCond_4_ACSR_I;
	conductor_N OHCond_NONE;
	spacing OHSpacing_HORIZONTAL_3P_52;
}

// L_1200074173_LineConfig
object line_configuration {
	name L_1200074173_LineConfig;
	conductor_A OHCond_715_AAC_I;
	conductor_B OHCond_715_AAC_I;
	conductor_C OHCond_715_AAC_I;
	conductor_N OHCond_NONE;
	spacing OHSpacing_HORIZONTAL_3P_52;
}

// L_1200128365_LineConfig
object line_configuration {
	name L_1200128365_LineConfig;
	conductor_A OHCond_4_ACSR_I;
	conductor_B OHCond_4_ACSR_I;
	conductor_C OHCond_4_ACSR_I;
	conductor_N OHCond_NONE;
	spacing OHSpacing_HORIZONTAL_3P_52;
}

// L_1200128284_LineConfig
object line_configuration {
	name L_1200128284_LineConfig;
	conductor_A OHCond_4_ACSR_I;
	conductor_B OHCond_4_ACSR_I;
	conductor_C OHCond_4_ACSR_I;
	conductor_N OHCond_NONE;
	spacing OHSpacing_HORIZONTAL_3P_52;
}

// L_1200163946_LineConfig
object line_configuration {
	name L_1200163946_LineConfig;
	conductor_A OHCond_4_CU_I;
	conductor_B OHCond_4_CU_I;
	conductor_C OHCond_4_CU_I;
	conductor_N OHCond_NONE;
	spacing OHSpacing_HORIZONTAL_3P_52;
}

// L_1200157996_LineConfig
object line_configuration {
	name L_1200157996_LineConfig;
	conductor_A OHCond_6_CU_I;
	conductor_B OHCond_6_CU_I;
	conductor_C OHCond_6_CU_I;
	conductor_N OHCond_NONE;
	spacing OHSpacing_HORIZONTAL_3P_52;
}

// L_1200085098_LineConfig
object line_configuration {
	name L_1200085098_LineConfig;
	conductor_A OHCond_4_ACSR_I;
	conductor_B OHCond_4_ACSR_I;
	conductor_C OHCond_4_ACSR_I;
	conductor_N OHCond_NONE;
	spacing OHSpacing_HORIZONTAL_3P_88;
}

// L_1200157007_LineConfig
object line_configuration {
	name L_1200157007_LineConfig;
	conductor_A OHCond_6_CU_I;
	conductor_B OHCond_6_CU_I;
	conductor_C OHCond_6_CU_I;
	conductor_N OHCond_NONE;
	spacing OHSpacing_HORIZONTAL_3P_52;
}

// L_1200108755_LineConfig
object line_configuration {
	name L_1200108755_LineConfig;
	conductor_A OHCond_4_ACSR_I;
	conductor_B OHCond_4_ACSR_I;
	conductor_C OHCond_4_ACSR_I;
	conductor_N OHCond_NONE;
	spacing OHSpacing_HORIZONTAL_3P_52;
}

// L_1200018373_LineConfig
object line_configuration {
	name L_1200018373_LineConfig;
	conductor_A OHCond_4_ACSR_I;
	conductor_B OHCond_4_ACSR_I;
	conductor_C OHCond_4_ACSR_I;
	conductor_N OHCond_NONE;
	spacing OHSpacing_HORIZONTAL_3P_52;
}

// L_1200157033_LineConfig
object line_configuration {
	name L_1200157033_LineConfig;
	conductor_A OHCond_6_CU_I;
	conductor_B OHCond_6_CU_I;
	conductor_C OHCond_6_CU_I;
	conductor_N OHCond_NONE;
	spacing OHSpacing_HORIZONTAL_3P_52;
}

// L_1200094828_LineConfig
object line_configuration {
	name L_1200094828_LineConfig;
	conductor_A OHCond_4_CU_I;
	conductor_B OHCond_4_CU_I;
	conductor_C OHCond_4_CU_I;
	conductor_N OHCond_NONE;
	spacing OHSpacing_HORIZONTAL_3P_52;
}

// L_1200128621_LineConfig
object line_configuration {
	name L_1200128621_LineConfig;
	conductor_A OHCond_4_ACSR_I;
	conductor_B OHCond_4_ACSR_I;
	conductor_C OHCond_4_ACSR_I;
	conductor_N OHCond_NONE;
	spacing OHSpacing_HORIZONTAL_3P_52;
}

// L_1200127872_LineConfig
object line_configuration {
	name L_1200127872_LineConfig;
	conductor_A OHCond_4_CU_I;
	conductor_B OHCond_4_CU_I;
	conductor_C OHCond_4_CU_I;
	conductor_N OHCond_NONE;
	spacing OHSpacing_HORIZONTAL_3P_52;
}

// L_1200030078_LineConfig
object line_configuration {
	name L_1200030078_LineConfig;
	conductor_A OHCond_6_CU_I;
	conductor_B OHCond_6_CU_I;
	conductor_C OHCond_NONE;
	conductor_N OHCond_NONE;
	spacing OHSpacing_HORIZONTAL_2P_88;
}

// L_1200128235_LineConfig
object line_configuration {
	name L_1200128235_LineConfig;
	conductor_A OHCond_6_CU_I;
	conductor_B OHCond_6_CU_I;
	conductor_C OHCond_6_CU_I;
	conductor_N OHCond_NONE;
	spacing OHSpacing_HORIZONTAL_3P_52;
}

// L_1200163905_LineConfig
object line_configuration {
	name L_1200163905_LineConfig;
	conductor_A OHCond_4_ACSR_I;
	conductor_B OHCond_4_ACSR_I;
	conductor_C OHCond_4_ACSR_I;
	conductor_N OHCond_NONE;
	spacing OHSpacing_HORIZONTAL_3P_52;
}

// L_1200156991_LineConfig
object line_configuration {
	name L_1200156991_LineConfig;
	conductor_A OHCond_4_ACSR_I;
	conductor_B OHCond_4_ACSR_I;
	conductor_C OHCond_4_ACSR_I;
	conductor_N OHCond_NONE;
	spacing OHSpacing_HORIZONTAL_3P_52;
}

// L_1200128261_LineConfig
object line_configuration {
	name L_1200128261_LineConfig;
	conductor_A OHCond_6_CU_I;
	conductor_B OHCond_6_CU_I;
	conductor_C OHCond_6_CU_I;
	conductor_N OHCond_NONE;
	spacing OHSpacing_HORIZONTAL_3P_52;
}

// L_1200109926_LineConfig
object line_configuration {
	name L_1200109926_LineConfig;
	conductor_A OHCond_4_CU_I;
	conductor_B OHCond_4_CU_I;
	conductor_C OHCond_4_CU_I;
	conductor_N OHCond_NONE;
	spacing OHSpacing_HORIZONTAL_3P_52;
}

// L_1200108657_LineConfig
object line_configuration {
	name L_1200108657_LineConfig;
	conductor_A OHCond_6_CU_I;
	conductor_B OHCond_6_CU_I;
	conductor_C OHCond_6_CU_I;
	conductor_N OHCond_NONE;
	spacing OHSpacing_HORIZONTAL_3P_52;
}

// L_1200031718_LineConfig
object line_configuration {
	name L_1200031718_LineConfig;
	conductor_A OHCond_6_CU_I;
	conductor_B OHCond_6_CU_I;
	conductor_C OHCond_6_CU_I;
	conductor_N OHCond_NONE;
	spacing OHSpacing_HORIZONTAL_3P_52;
}

// L_1200157290_LineConfig
object line_configuration {
	name L_1200157290_LineConfig;
	conductor_A OHCond_4_CU_I;
	conductor_B OHCond_4_CU_I;
	conductor_C OHCond_4_CU_I;
	conductor_N OHCond_NONE;
	spacing OHSpacing_HORIZONTAL_3P_52;
}

// L_1200031776_LineConfig
object line_configuration {
	name L_1200031776_LineConfig;
	conductor_A OHCond_4_CU_I;
	conductor_B OHCond_4_CU_I;
	conductor_C OHCond_4_CU_I;
	conductor_N OHCond_NONE;
	spacing OHSpacing_HORIZONTAL_3P_52;
}

// L_1200128638_LineConfig
object line_configuration {
	name L_1200128638_LineConfig;
	conductor_A OHCond_4_CU_I;
	conductor_B OHCond_4_CU_I;
	conductor_C OHCond_4_CU_I;
	conductor_N OHCond_NONE;
	spacing OHSpacing_HORIZONTAL_3P_52;
}

// L_1200128319_LineConfig
object line_configuration {
	name L_1200128319_LineConfig;
	conductor_A OHCond_4_ACSR_I;
	conductor_B OHCond_4_ACSR_I;
	conductor_C OHCond_4_ACSR_I;
	conductor_N OHCond_NONE;
	spacing OHSpacing_HORIZONTAL_3P_52;
}

// L_1200157157_LineConfig
object line_configuration {
	name L_1200157157_LineConfig;
	conductor_A OHCond_4_ACSR_I;
	conductor_B OHCond_4_ACSR_I;
	conductor_C OHCond_4_ACSR_I;
	conductor_N OHCond_NONE;
	spacing OHSpacing_HORIZONTAL_3P_52;
}

// L_1200128092_LineConfig
object line_configuration {
	name L_1200128092_LineConfig;
	conductor_A OHCond_336_AAC_I;
	conductor_B OHCond_336_AAC_I;
	conductor_C OHCond_336_AAC_I;
	conductor_N OHCond_NONE;
	spacing OHSpacing_HORIZONTAL_3P_52;
}

// L_1200157980_LineConfig
object line_configuration {
	name L_1200157980_LineConfig;
	conductor_A OHCond_6_CU_I;
	conductor_B OHCond_6_CU_I;
	conductor_C OHCond_6_CU_I;
	conductor_N OHCond_NONE;
	spacing OHSpacing_HORIZONTAL_3P_52;
}

// L_1200066459_LineConfig
object line_configuration {
	name L_1200066459_LineConfig;
	conductor_A OHCond_4/0_AAC_I;
	conductor_B OHCond_4/0_AAC_I;
	conductor_C OHCond_4/0_AAC_I;
	conductor_N OHCond_NONE;
	spacing OHSpacing_HORIZONTAL_3P_52;
}

// L_1200074232_LineConfig
object line_configuration {
	name L_1200074232_LineConfig;
	conductor_A OHCond_6_CU_I;
	conductor_B OHCond_6_CU_I;
	conductor_C OHCond_6_CU_I;
	conductor_N OHCond_NONE;
	spacing OHSpacing_HORIZONTAL_3P_52;
}

// L_1200128503_LineConfig
object line_configuration {
	name L_1200128503_LineConfig;
	conductor_A OHCond_6_CU_I;
	conductor_B OHCond_6_CU_I;
	conductor_C OHCond_6_CU_I;
	conductor_N OHCond_NONE;
	spacing OHSpacing_HORIZONTAL_3P_52;
}

// L_1200184112_LineConfig
object line_configuration {
	name L_1200184112_LineConfig;
	conductor_A OHCond_6_CU_I;
	conductor_B OHCond_6_CU_I;
	conductor_C OHCond_6_CU_I;
	conductor_N OHCond_NONE;
	spacing OHSpacing_HORIZONTAL_3P_52;
}

// L_1200109084_LineConfig
object line_configuration {
	name L_1200109084_LineConfig;
	conductor_A OHCond_4_ACSR_I;
	conductor_B OHCond_4_ACSR_I;
	conductor_C OHCond_4_ACSR_I;
	conductor_N OHCond_NONE;
	spacing OHSpacing_TRIANGULAR_3P_52;
}

// L_1200128373_LineConfig
object line_configuration {
	name L_1200128373_LineConfig;
	conductor_A OHCond_6_CU_I;
	conductor_B OHCond_6_CU_I;
	conductor_C OHCond_6_CU_I;
	conductor_N OHCond_NONE;
	spacing OHSpacing_HORIZONTAL_3P_52;
}

// L_1200066471_LineConfig
object line_configuration {
	name L_1200066471_LineConfig;
	conductor_A OHCond_4_ACSR_I;
	conductor_B OHCond_4_ACSR_I;
	conductor_C OHCond_4_ACSR_I;
	conductor_N OHCond_NONE;
	spacing OHSpacing_HORIZONTAL_3P_52;
}

// L_1200076332_LineConfig
object line_configuration {
	name L_1200076332_LineConfig;
	conductor_A OHCond_4_CU_I;
	conductor_B OHCond_4_CU_I;
	conductor_C OHCond_4_CU_I;
	conductor_N OHCond_NONE;
	spacing OHSpacing_HORIZONTAL_3P_52;
}

// L_1200127879_LineConfig
object line_configuration {
	name L_1200127879_LineConfig;
	conductor_A OHCond_4_ACSR_I;
	conductor_B OHCond_4_ACSR_I;
	conductor_C OHCond_4_ACSR_I;
	conductor_N OHCond_NONE;
	spacing OHSpacing_HORIZONTAL_3P_52;
}

// L_1200069082_LineConfig
object line_configuration {
	name L_1200069082_LineConfig;
	conductor_A OHCond_4/0_AAC_I;
	conductor_B OHCond_4/0_AAC_I;
	conductor_C OHCond_4/0_AAC_I;
	conductor_N OHCond_NONE;
	spacing OHSpacing_HORIZONTAL_3P_52;
}

// L_1200128547_LineConfig
object line_configuration {
	name L_1200128547_LineConfig;
	conductor_A OHCond_6_CU_I;
	conductor_B OHCond_6_CU_I;
	conductor_C OHCond_6_CU_I;
	conductor_N OHCond_NONE;
	spacing OHSpacing_HORIZONTAL_3P_52;
}

// L_1200128375_LineConfig
object line_configuration {
	name L_1200128375_LineConfig;
	conductor_A OHCond_4_CU_I;
	conductor_B OHCond_4_CU_I;
	conductor_C OHCond_4_CU_I;
	conductor_N OHCond_NONE;
	spacing OHSpacing_HORIZONTAL_3P_52;
}

// L_1200157899_LineConfig
object line_configuration {
	name L_1200157899_LineConfig;
	conductor_A OHCond_6_CU_I;
	conductor_B OHCond_6_CU_I;
	conductor_C OHCond_6_CU_I;
	conductor_N OHCond_NONE;
	spacing OHSpacing_HORIZONTAL_3P_52;
}

// L_1200157934_LineConfig
object line_configuration {
	name L_1200157934_LineConfig;
	conductor_A OHCond_4_ACSR_I;
	conductor_B OHCond_4_ACSR_I;
	conductor_C OHCond_4_ACSR_I;
	conductor_N OHCond_NONE;
	spacing OHSpacing_HORIZONTAL_3P_52;
}

// L_1200085100_LineConfig
object line_configuration {
	name L_1200085100_LineConfig;
	conductor_A OHCond_6_CU_I;
	conductor_B OHCond_6_CU_I;
	conductor_C OHCond_6_CU_I;
	conductor_N OHCond_NONE;
	spacing OHSpacing_HORIZONTAL_3P_88;
}

// L_1200128189_LineConfig
object line_configuration {
	name L_1200128189_LineConfig;
	conductor_A OHCond_2_CU_I;
	conductor_B OHCond_2_CU_I;
	conductor_C OHCond_2_CU_I;
	conductor_N OHCond_NONE;
	spacing OHSpacing_HORIZONTAL_3P_52;
}

// L_1200108744_LineConfig
object line_configuration {
	name L_1200108744_LineConfig;
	conductor_A OHCond_4_CU_I;
	conductor_B OHCond_4_CU_I;
	conductor_C OHCond_4_CU_I;
	conductor_N OHCond_NONE;
	spacing OHSpacing_HORIZONTAL_3P_52;
}

// L_1200128179_LineConfig
object line_configuration {
	name L_1200128179_LineConfig;
	conductor_A OHCond_4_CU_I;
	conductor_B OHCond_4_CU_I;
	conductor_C OHCond_4_CU_I;
	conductor_N OHCond_NONE;
	spacing OHSpacing_HORIZONTAL_3P_52;
}

// L_1200157956_LineConfig
object line_configuration {
	name L_1200157956_LineConfig;
	conductor_A OHCond_6_CU_I;
	conductor_B OHCond_6_CU_I;
	conductor_C OHCond_6_CU_I;
	conductor_N OHCond_NONE;
	spacing OHSpacing_HORIZONTAL_3P_52;
}

// L_1200014997_LineConfig
object line_configuration {
	name L_1200014997_LineConfig;
	conductor_A OHCond_2_CU_I;
	conductor_B OHCond_2_CU_I;
	conductor_C OHCond_2_CU_I;
	conductor_N OHCond_NONE;
	spacing OHSpacing_HORIZONTAL_3P_52;
}

// L_1200157897_LineConfig
object line_configuration {
	name L_1200157897_LineConfig;
	conductor_A OHCond_2_CU_I;
	conductor_B OHCond_2_CU_I;
	conductor_C OHCond_2_CU_I;
	conductor_N OHCond_NONE;
	spacing OHSpacing_HORIZONTAL_3P_52;
}

// L_1200019807_LineConfig
object line_configuration {
	name L_1200019807_LineConfig;
	conductor_A OHCond_2_CU_I;
	conductor_B OHCond_2_CU_I;
	conductor_C OHCond_2_CU_I;
	conductor_N OHCond_NONE;
	spacing OHSpacing_HORIZONTAL_3P_52;
}

// L_1200164772_LineConfig
object line_configuration {
	name L_1200164772_LineConfig;
	conductor_A OHCond_2_CU_I;
	conductor_B OHCond_2_CU_I;
	conductor_C OHCond_2_CU_I;
	conductor_N OHCond_NONE;
	spacing OHSpacing_HORIZONTAL_3P_52;
}

// L_1200157951_LineConfig
object line_configuration {
	name L_1200157951_LineConfig;
	conductor_A OHCond_4_ACSR_I;
	conductor_B OHCond_4_ACSR_I;
	conductor_C OHCond_4_ACSR_I;
	conductor_N OHCond_NONE;
	spacing OHSpacing_HORIZONTAL_3P_52;
}

// L_1200128617_LineConfig
object line_configuration {
	name L_1200128617_LineConfig;
	conductor_A OHCond_6_CU_I;
	conductor_B OHCond_6_CU_I;
	conductor_C OHCond_6_CU_I;
	conductor_N OHCond_NONE;
	spacing OHSpacing_HORIZONTAL_3P_52;
}

// L_1200164911_LineConfig
object line_configuration {
	name L_1200164911_LineConfig;
	conductor_A OHCond_2_CU_I;
	conductor_B OHCond_2_CU_I;
	conductor_C OHCond_2_CU_I;
	conductor_N OHCond_NONE;
	spacing OHSpacing_HORIZONTAL_3P_52;
}

// L_1200163909_LineConfig
object line_configuration {
	name L_1200163909_LineConfig;
	conductor_A OHCond_6_CU_I;
	conductor_B OHCond_6_CU_I;
	conductor_C OHCond_6_CU_I;
	conductor_N OHCond_NONE;
	spacing OHSpacing_HORIZONTAL_3P_52;
}

// L_1200222148_LineConfig
object line_configuration {
	name L_1200222148_LineConfig;
	conductor_A OHCond_4_ACSR_I;
	conductor_B OHCond_4_ACSR_I;
	conductor_C OHCond_4_ACSR_I;
	conductor_N OHCond_NONE;
	spacing OHSpacing_HORIZONTAL_3P_52;
}

// L_1200083600_LineConfig
object line_configuration {
	name L_1200083600_LineConfig;
	conductor_A OHCond_6_CU_I;
	conductor_B OHCond_6_CU_I;
	conductor_C OHCond_6_CU_I;
	conductor_N OHCond_NONE;
	spacing OHSpacing_HORIZONTAL_3P_52;
}

// L_1200163752_LineConfig
object line_configuration {
	name L_1200163752_LineConfig;
	conductor_A OHCond_6_CU_I;
	conductor_B OHCond_6_CU_I;
	conductor_C OHCond_6_CU_I;
	conductor_N OHCond_NONE;
	spacing OHSpacing_HORIZONTAL_3P_52;
}

// L_1200074197_LineConfig
object line_configuration {
	name L_1200074197_LineConfig;
	conductor_A OHCond_6_CU_I;
	conductor_B OHCond_6_CU_I;
	conductor_C OHCond_6_CU_I;
	conductor_N OHCond_NONE;
	spacing OHSpacing_HORIZONTAL_3P_52;
}

// L_1200157061_LineConfig
object line_configuration {
	name L_1200157061_LineConfig;
	conductor_A OHCond_6_CU_I;
	conductor_B OHCond_6_CU_I;
	conductor_C OHCond_NONE;
	conductor_N OHCond_NONE;
	spacing OHSpacing_HORIZONTAL_2P_52;
}

// L_1200074205_LineConfig
object line_configuration {
	name L_1200074205_LineConfig;
	conductor_A OHCond_4_ACSR_I;
	conductor_B OHCond_4_ACSR_I;
	conductor_C OHCond_4_ACSR_I;
	conductor_N OHCond_NONE;
	spacing OHSpacing_HORIZONTAL_3P_52;
}

// L_1200128619_LineConfig
object line_configuration {
	name L_1200128619_LineConfig;
	conductor_A OHCond_6_CU_I;
	conductor_B OHCond_6_CU_I;
	conductor_C OHCond_6_CU_I;
	conductor_N OHCond_NONE;
	spacing OHSpacing_HORIZONTAL_3P_52;
}

// L_1200163753_LineConfig
object line_configuration {
	name L_1200163753_LineConfig;
	conductor_A OHCond_4_ACSR_I;
	conductor_B OHCond_4_ACSR_I;
	conductor_C OHCond_4_ACSR_I;
	conductor_N OHCond_NONE;
	spacing OHSpacing_HORIZONTAL_3P_52;
}

// L_1200108789_LineConfig
object line_configuration {
	name L_1200108789_LineConfig;
	conductor_A OHCond_4_ACSR_I;
	conductor_B OHCond_4_ACSR_I;
	conductor_C OHCond_4_ACSR_I;
	conductor_N OHCond_NONE;
	spacing OHSpacing_HORIZONTAL_3P_52;
}

// L_1200128718_LineConfig
object line_configuration {
	name L_1200128718_LineConfig;
	conductor_A OHCond_6_CU_I;
	conductor_B OHCond_6_CU_I;
	conductor_C OHCond_6_CU_I;
	conductor_N OHCond_NONE;
	spacing OHSpacing_HORIZONTAL_3P_52;
}

// L_1200031780_LineConfig
object line_configuration {
	name L_1200031780_LineConfig;
	conductor_A OHCond_4_CU_I;
	conductor_B OHCond_4_CU_I;
	conductor_C OHCond_4_CU_I;
	conductor_N OHCond_NONE;
	spacing OHSpacing_HORIZONTAL_3P_72;
}

// L_1200220106_LineConfig
object line_configuration {
	name L_1200220106_LineConfig;
	conductor_A OHCond_2_CU_I;
	conductor_B OHCond_2_CU_I;
	conductor_C OHCond_2_CU_I;
	conductor_N OHCond_NONE;
	spacing OHSpacing_HORIZONTAL_3P_52;
}

// L_1200157297_LineConfig
object line_configuration {
	name L_1200157297_LineConfig;
	conductor_A OHCond_4_CU_I;
	conductor_B OHCond_4_CU_I;
	conductor_C OHCond_4_CU_I;
	conductor_N OHCond_NONE;
	spacing OHSpacing_HORIZONTAL_3P_52;
}

// L_1200128568_LineConfig
object line_configuration {
	name L_1200128568_LineConfig;
	conductor_A OHCond_4_CU_I;
	conductor_B OHCond_4_CU_I;
	conductor_C OHCond_4_CU_I;
	conductor_N OHCond_NONE;
	spacing OHSpacing_HORIZONTAL_3P_52;
}

// L_1200128398_LineConfig
object line_configuration {
	name L_1200128398_LineConfig;
	conductor_A OHCond_4_ACSR_I;
	conductor_B OHCond_4_ACSR_I;
	conductor_C OHCond_4_ACSR_I;
	conductor_N OHCond_NONE;
	spacing OHSpacing_HORIZONTAL_3P_52;
}

// L_1200157270_LineConfig
object line_configuration {
	name L_1200157270_LineConfig;
	conductor_A OHCond_6_CU_I;
	conductor_B OHCond_6_CU_I;
	conductor_C OHCond_6_CU_I;
	conductor_N OHCond_NONE;
	spacing OHSpacing_HORIZONTAL_3P_52;
}

// L_1200214664_LineConfig
object line_configuration {
	name L_1200214664_LineConfig;
	conductor_A OHCond_6_CU_I;
	conductor_B OHCond_6_CU_I;
	conductor_C OHCond_6_CU_I;
	conductor_N OHCond_NONE;
	spacing OHSpacing_HORIZONTAL_3P_52;
}

// L_1200206619_LineConfig
object line_configuration {
	name L_1200206619_LineConfig;
	conductor_A OHCond_4_ACSR_I;
	conductor_B OHCond_4_ACSR_I;
	conductor_C OHCond_4_ACSR_I;
	conductor_N OHCond_NONE;
	spacing OHSpacing_HORIZONTAL_3P_52;
}

// L_1200108734_LineConfig
object line_configuration {
	name L_1200108734_LineConfig;
	conductor_A OHCond_2_CU_I;
	conductor_B OHCond_2_CU_I;
	conductor_C OHCond_2_CU_I;
	conductor_N OHCond_NONE;
	spacing OHSpacing_HORIZONTAL_3P_52;
}

// L_1200164243_LineConfig
object line_configuration {
	name L_1200164243_LineConfig;
	conductor_A OHCond_2_CU_I;
	conductor_B OHCond_2_CU_I;
	conductor_C OHCond_2_CU_I;
	conductor_N OHCond_NONE;
	spacing OHSpacing_HORIZONTAL_3P_52;
}

// L_1200108604_LineConfig
object line_configuration {
	name L_1200108604_LineConfig;
	conductor_A OHCond_2_CU_I;
	conductor_B OHCond_2_CU_I;
	conductor_C OHCond_2_CU_I;
	conductor_N OHCond_NONE;
	spacing OHSpacing_HORIZONTAL_3P_52;
}

// L_1200128737_LineConfig
object line_configuration {
	name L_1200128737_LineConfig;
	conductor_A OHCond_4/0_AAC_I;
	conductor_B OHCond_4/0_AAC_I;
	conductor_C OHCond_4/0_AAC_I;
	conductor_N OHCond_NONE;
	spacing OHSpacing_HORIZONTAL_3P_52;
}

// L_1200214116_LineConfig
object line_configuration {
	name L_1200214116_LineConfig;
	conductor_A OHCond_6_CU_I;
	conductor_B OHCond_6_CU_I;
	conductor_C OHCond_6_CU_I;
	conductor_N OHCond_NONE;
	spacing OHSpacing_HORIZONTAL_3P_52;
}

// L_1200157294_LineConfig
object line_configuration {
	name L_1200157294_LineConfig;
	conductor_A OHCond_6_CU_I;
	conductor_B OHCond_6_CU_I;
	conductor_C OHCond_6_CU_I;
	conductor_N OHCond_NONE;
	spacing OHSpacing_HORIZONTAL_3P_52;
}

// L_1200074208_LineConfig
object line_configuration {
	name L_1200074208_LineConfig;
	conductor_A OHCond_4_ACSR_I;
	conductor_B OHCond_4_ACSR_I;
	conductor_C OHCond_4_ACSR_I;
	conductor_N OHCond_NONE;
	spacing OHSpacing_HORIZONTAL_3P_52;
}

// L_1200108780_LineConfig
object line_configuration {
	name L_1200108780_LineConfig;
	conductor_A OHCond_4_CU_I;
	conductor_B OHCond_4_CU_I;
	conductor_C OHCond_4_CU_I;
	conductor_N OHCond_NONE;
	spacing OHSpacing_HORIZONTAL_3P_52;
}

// L_1200031786_LineConfig
object line_configuration {
	name L_1200031786_LineConfig;
	conductor_A OHCond_4_ACSR_I;
	conductor_B OHCond_4_ACSR_I;
	conductor_C OHCond_4_ACSR_I;
	conductor_N OHCond_NONE;
	spacing OHSpacing_HORIZONTAL_3P_52;
}

// L_1200019230_LineConfig
object line_configuration {
	name L_1200019230_LineConfig;
	conductor_A OHCond_397_AAC_I;
	conductor_B OHCond_397_AAC_I;
	conductor_C OHCond_397_AAC_I;
	conductor_N OHCond_NONE;
	spacing OHSpacing_HORIZONTAL_3P_52;
}

// L_1200128295_LineConfig
object line_configuration {
	name L_1200128295_LineConfig;
	conductor_A OHCond_336_AAC_I;
	conductor_B OHCond_336_AAC_I;
	conductor_C OHCond_336_AAC_I;
	conductor_N OHCond_NONE;
	spacing OHSpacing_HORIZONTAL_3P_52;
}

// L_1200157000_LineConfig
object line_configuration {
	name L_1200157000_LineConfig;
	conductor_A OHCond_4_ACSR_I;
	conductor_B OHCond_4_ACSR_I;
	conductor_C OHCond_4_ACSR_I;
	conductor_N OHCond_NONE;
	spacing OHSpacing_HORIZONTAL_3P_52;
}

// L_1200128490_LineConfig
object line_configuration {
	name L_1200128490_LineConfig;
	conductor_A OHCond_4_ACSR_I;
	conductor_B OHCond_4_ACSR_I;
	conductor_C OHCond_4_ACSR_I;
	conductor_N OHCond_NONE;
	spacing OHSpacing_HORIZONTAL_3P_52;
}

// L_1200017787_LineConfig
object line_configuration {
	name L_1200017787_LineConfig;
	conductor_A OHCond_2_CU_I;
	conductor_B OHCond_2_CU_I;
	conductor_C OHCond_2_CU_I;
	conductor_N OHCond_NONE;
	spacing OHSpacing_HORIZONTAL_3P_52;
}

// L_1200128548_LineConfig
object line_configuration {
	name L_1200128548_LineConfig;
	conductor_A OHCond_6_CU_I;
	conductor_B OHCond_6_CU_I;
	conductor_C OHCond_6_CU_I;
	conductor_N OHCond_NONE;
	spacing OHSpacing_HORIZONTAL_3P_52;
}

// L_1200157898_LineConfig
object line_configuration {
	name L_1200157898_LineConfig;
	conductor_A OHCond_6_CU_I;
	conductor_B OHCond_6_CU_I;
	conductor_C OHCond_6_CU_I;
	conductor_N OHCond_NONE;
	spacing OHSpacing_HORIZONTAL_3P_52;
}

// L_1200108758_LineConfig
object line_configuration {
	name L_1200108758_LineConfig;
	conductor_A OHCond_4_ACSR_I;
	conductor_B OHCond_4_ACSR_I;
	conductor_C OHCond_4_ACSR_I;
	conductor_N OHCond_NONE;
	spacing OHSpacing_HORIZONTAL_3P_52;
}

// L_1200016528_LineConfig
object line_configuration {
	name L_1200016528_LineConfig;
	conductor_A OHCond_336_AAC_I;
	conductor_B OHCond_336_AAC_I;
	conductor_C OHCond_336_AAC_I;
	conductor_N OHCond_NONE;
	spacing OHSpacing_HORIZONTAL_3P_52;
}

// L_1200128489_LineConfig
object line_configuration {
	name L_1200128489_LineConfig;
	conductor_A OHCond_4_ACSR_I;
	conductor_B OHCond_4_ACSR_I;
	conductor_C OHCond_4_ACSR_I;
	conductor_N OHCond_NONE;
	spacing OHSpacing_HORIZONTAL_3P_52;
}

// L_1200128327_LineConfig
object line_configuration {
	name L_1200128327_LineConfig;
	conductor_A OHCond_4_CU_I;
	conductor_B OHCond_4_CU_I;
	conductor_C OHCond_4_CU_I;
	conductor_N OHCond_NONE;
	spacing OHSpacing_HORIZONTAL_3P_52;
}

// L_1200157896_LineConfig
object line_configuration {
	name L_1200157896_LineConfig;
	conductor_A OHCond_4_ACSR_I;
	conductor_B OHCond_4_ACSR_I;
	conductor_C OHCond_4_ACSR_I;
	conductor_N OHCond_NONE;
	spacing OHSpacing_HORIZONTAL_3P_52;
}

// L_1200157914_LineConfig
object line_configuration {
	name L_1200157914_LineConfig;
	conductor_A OHCond_397_AAC_I;
	conductor_B OHCond_397_AAC_I;
	conductor_C OHCond_397_AAC_I;
	conductor_N OHCond_NONE;
	spacing OHSpacing_HORIZONTAL_3P_52;
}

// L_1200128371_LineConfig
object line_configuration {
	name L_1200128371_LineConfig;
	conductor_A OHCond_6_CU_I;
	conductor_B OHCond_6_CU_I;
	conductor_C OHCond_6_CU_I;
	conductor_N OHCond_NONE;
	spacing OHSpacing_HORIZONTAL_3P_52;
}

// L_1200164090_LineConfig
object line_configuration {
	name L_1200164090_LineConfig;
	conductor_A OHCond_4_ACSR_I;
	conductor_B OHCond_4_ACSR_I;
	conductor_C OHCond_4_ACSR_I;
	conductor_N OHCond_NONE;
	spacing OHSpacing_HORIZONTAL_3P_52;
}

// L_1200163749_LineConfig
object line_configuration {
	name L_1200163749_LineConfig;
	conductor_A OHCond_6_CU_I;
	conductor_B OHCond_6_CU_I;
	conductor_C OHCond_6_CU_I;
	conductor_N OHCond_NONE;
	spacing OHSpacing_HORIZONTAL_3P_52;
}

// L_1200086693_LineConfig
object line_configuration {
	name L_1200086693_LineConfig;
	conductor_A OHCond_4_CU_I;
	conductor_B OHCond_4_CU_I;
	conductor_C OHCond_4_CU_I;
	conductor_N OHCond_NONE;
	spacing OHSpacing_HORIZONTAL_3P_52;
}

// L_1200108656_LineConfig
...